[TITLE]


[JUNCTIONS]
;ID              	Elev        	Demand      	Pattern         
 4754            	0.5         	0.011977556 	Demand_Pattern_2022	;				
 4402            	0.9063      	1.569663014 	Demand_Pattern_2022	;				
 5820            	2.0707      	0.610855343 	Demand_Pattern_2022	;				
 5093            	0.9063      	0.047910223 	Demand_Pattern_2022	;				
 4401            	0.9063      	0           	                	;				
 4483            	2.1208      	0.203618448 	Demand_Pattern_2022	;				
 5169            	2.0707      	0           	                	;				
 6185            	1.9948      	0.035932667 	Demand_Pattern_2022	;				
 4962            	0.9063      	0.778541124 	Demand_Pattern_2022	;				
 5476            	2.1208      	0.419214451 	Demand_Pattern_2022	;				
 4404            	0.9063      	0.011977556 	Demand_Pattern_2022	;				
 5147            	2.4305      	0.359929883 	Demand_Pattern_2022	;				
 6184            	1.3135      	0.011977556 	Demand_Pattern_2022	;				
 4649            	1.9959      	0.095820446 	Demand_Pattern_2022	;				
 4487            	1.9965      	0.011977556 	Demand_Pattern_2022	;				
 4405            	0.8971      	0           	                	;				
 4479            	1.4237      	1.018393844 	Demand_Pattern_2022	;				
 6211            	0.6098      	0.251528671 	Demand_Pattern_2022	;				
 4481            	1.4152      	0.08384289  	Demand_Pattern_2022	;				
 6188            	1.9848      	0.047910223 	Demand_Pattern_2022	;				
 4406            	1.1316      	0.011977556 	Demand_Pattern_2022	;				
 5837            	4.4871      	0.288667759 	Demand_Pattern_2022	;				
 4480            	2.0105      	0           	                	;				
 6171            	1.4551      	0.023955112 	Demand_Pattern_2022	;				
 4484            	2.0374      	0.035932667 	Demand_Pattern_2022	;				
 4655            	1.5069      	0.023955112 	Demand_Pattern_2022	;				
 4482            	1.9069      	0.287461338 	Demand_Pattern_2022	;				
 4614            	1.918       	0.239551115 	Demand_Pattern_2022	;				
 6353            	1.7377      	0.107798002 	Demand_Pattern_2022	;				
 4485            	1.9307      	0.658765566 	Demand_Pattern_2022	;				
 4653            	1.9187      	0.011977556 	Demand_Pattern_2022	;				
 6186            	1.8883      	0.011977556 	Demand_Pattern_2022	;				
 4486            	1.8909      	0.07216694  	Demand_Pattern_2022	;				
 5838            	4.4871      	0.721669397 	Demand_Pattern_2022	;				
 6180            	0.5398      	3.46925725  	Demand_Pattern_2022	;				
 5821            	1.8774      	0.011977556 	Demand_Pattern_2022	;				
 4652            	1.8843      	0.455147119 	Demand_Pattern_2022	;				
 4756            	0.5         	0.047910223 	Demand_Pattern_2022	;				
 4654            	1.6368      	0.047910223 	Demand_Pattern_2022	;				
 6187            	2.0222      	0           	                	;				
 5829            	1.0539      	0.251528671 	Demand_Pattern_2022	;				
 4963            	1.6049      	0           	                	;				
 4407            	1.6078      	0.023955112 	Demand_Pattern_2022	;				
 4410            	1.1537      	0.084144495 	Demand_Pattern_2022	;				
 5222            	1.6846      	0.179663336 	Demand_Pattern_2022	;				
 4650            	1.7368      	0.179964941 	Demand_Pattern_2022	;				
 5220            	1.7569      	0.251528671 	Demand_Pattern_2022	;				
 4657            	1.8174      	0.119775558 	Demand_Pattern_2022	;				
 4408            	1.8981      	0           	                	;				
 4656            	1.8625      	0.059887779 	Demand_Pattern_2022	;				
 5629            	1.8485      	0.132054718 	Demand_Pattern_2022	;				
 5498            	2.0002      	0.023955112 	Demand_Pattern_2022	;				
 5120            	1.7009      	0.08384289  	Demand_Pattern_2022	;				
 4409            	1.7242      	0           	                	;				
 5119            	1.7165      	0.719256555 	Demand_Pattern_2022	;				
 4620            	2.0462      	0           	                	;				
 4695            	1.8903      	0.011977556 	Demand_Pattern_2022	;				
 4696            	1.9027      	1.473540963 	Demand_Pattern_2022	;				
 4411            	1.7823      	0           	                	;				
 4397            	1.8431      	0.011977556 	Demand_Pattern_2022	;				
 4412            	1.8096      	0           	                	;				
 4651            	1.9317      	0.047910223 	Demand_Pattern_2022	;				
 4383            	1.1813      	0.970483621 	Demand_Pattern_2022	;				
 4478            	2.1249      	1.88540369  	Demand_Pattern_2022	;				
 5178            	1.152       	0.096122051 	Demand_Pattern_2022	;				
 4396            	1.9585      	0.023955112 	Demand_Pattern_2022	;				
 4320            	6.3503      	0.035932667 	Demand_Pattern_2022	;				
 4319            	6.3336      	0           	                	;				
 5223            	2.3054      	0.084144495 	Demand_Pattern_2022	;				
 5627            	6.3096      	0           	                	;				
 5916            	1.8771      	0           	                	;				
 4927            	1.8723      	0.335673166 	Demand_Pattern_2022	;				
 4317            	7.6935      	0           	                	;				
 4318            	4.4871      	0           	                	;				
 5569            	7.6935      	0           	                	;				
 5915            	1.4359      	0.730630901 	Demand_Pattern_2022	;				
 4685            	1.4289      	0.047910223 	Demand_Pattern_2022	;				
 5914            	1.4368      	0.047910223 	Demand_Pattern_2022	;				
 4686            	1.4332      	0           	                	;				
 5913            	1.4345      	0           	                	;				
 5870            	4.3068      	0           	                	;				
 4391            	1.3122      	0.191640892 	Demand_Pattern_2022	;				
 4929            	2.0806      	0.455448724 	Demand_Pattern_2022	;				
 5823            	0.9033      	0.527012453 	Demand_Pattern_2022	;				
 5871            	5.5833      	0.023955112 	Demand_Pattern_2022	;				
 4395            	2.0266      	0           	                	;				
 4385            	0.7488      	0.191640892 	Demand_Pattern_2022	;				
 5875            	4.4871      	0.035932667 	Demand_Pattern_2022	;				
 6170            	0.8939      	0.059887779 	Demand_Pattern_2022	;				
 4619            	2.7912      	0           	                	;				
 4618            	2.7929      	0.047910223 	Demand_Pattern_2022	;				
 5859            	7.1979      	0.011977556 	Demand_Pattern_2022	;				
 4413            	0.9024      	0.011977556 	Demand_Pattern_2022	;				
 5594            	1.3257      	0           	                	;				
 4414            	0.9087      	0.011977556 	Demand_Pattern_2022	;				
 4382            	0.6976      	0.07216694  	Demand_Pattern_2022	;				
 4384            	0.6998      	0.011977556 	Demand_Pattern_2022	;				
 5865            	7.0549      	0.023955112 	Demand_Pattern_2022	;				
 5182            	0.6965      	0.275483782 	Demand_Pattern_2022	;				
 4658            	2.9892      	0.059887779 	Demand_Pattern_2022	;				
 5864            	6.6117      	0.095820446 	Demand_Pattern_2022	;				
 4390            	1.6475      	0.07216694  	Demand_Pattern_2022	;				
 4389            	1.6421      	0           	                	;				
 6346            	6.9884      	0.011977556 	Demand_Pattern_2022	;				
 5177            	0.852       	0.035932667 	Demand_Pattern_2022	;				
 5840            	0.5         	1.126795056 	Demand_Pattern_2022	;				
 5863            	8.3542      	0.071865335 	Demand_Pattern_2022	;				
 5824            	7.9051      	0           	                	;				
 4393            	1.4921      	1.668902871 	Demand_Pattern_2022	;				
 5813            	0.8802      	0.251830276 	Demand_Pattern_2022	;				
 4392            	1.5026      	0           	                	;				
 5370            	1.8512      	0.084144495 	Demand_Pattern_2022	;				
 4684            	1.8503      	0.096122051 	Demand_Pattern_2022	;				
 5981            	8.8524      	0.095820446 	Demand_Pattern_2022	;				
 4394            	1.4593      	0           	                	;				
 6189            	1.876       	0.335371561 	Demand_Pattern_2022	;				
 6357            	0.5         	0.084144495 	Demand_Pattern_2022	;				
 6190            	7.9695      	2.659017377 	Demand_Pattern_2022	;				
 5861            	9.0707      	0.047910223 	Demand_Pattern_2022	;				
 4757            	0.5         	0           	                	;				
 4751            	0.5         	0           	                	;				
 4928            	0.4636      	0.934249349 	Demand_Pattern_2022	;				
 5860            	9.44        	0.155708225 	Demand_Pattern_2022	;				
 4755            	0.5         	0           	                	;				
 4753            	0.5         	0           	                	;				
 4697            	0.7919      	0.538990009 	Demand_Pattern_2022	;				
 4700            	0.8135      	0.227875164 	Demand_Pattern_2022	;				
 4698            	0.7598      	1.548524103 	Demand_Pattern_2022	;				
 4721            	1.2261      	0.179663336 	Demand_Pattern_2022	;				
 5825            	1.2563      	0.071865335 	Demand_Pattern_2022	;				
 4699            	0.7917      	1.536546547 	Demand_Pattern_2022	;				
 5858            	9.9749      	1.896174825 	Demand_Pattern_2022	;				
 5626            	9.4433      	0.107798002 	Demand_Pattern_2022	;				
 5874            	5.1046      	0.08384289  	Demand_Pattern_2022	;				
 5872            	5.5884      	0.08384289  	Demand_Pattern_2022	;				
 4387            	1.1408      	1.66608667  	Demand_Pattern_2022	;				
 5982            	10.3356     	0.23985272  	Demand_Pattern_2022	;				
 4386            	1.1534      	0           	                	;				
 5857            	6.0243      	0.011977556 	Demand_Pattern_2022	;				
 5876            	6.1778      	0.059887779 	Demand_Pattern_2022	;				
 5866            	8.9949      	0.227573559 	Demand_Pattern_2022	;				
 4712            	1.0662      	0.383583389 	Demand_Pattern_2022	;				
 4388            	1.1077      	0           	                	;				
 5880            	2.1253      	0.108099607 	Demand_Pattern_2022	;				
 5789            	3.6195      	0.826451347 	Demand_Pattern_2022	;				
 5882            	2.8678      	1.991693666 	Demand_Pattern_2022	;				
 5110            	1.2339      	0.155708225 	Demand_Pattern_2022	;				
 4375            	1.2015      	0           	                	;				
 5883            	1.2448      	1.305855182 	Demand_Pattern_2022	;				
 5839            	0.5         	0.023955112 	Demand_Pattern_2022	;				
 4381            	1.3655      	0           	                	;				
 4380            	1.3422      	0           	                	;				
 4376            	1.3187      	0           	                	;				
 6283            	0.5         	0.970182016 	Demand_Pattern_2022	;				
 4377            	1.3461      	0           	                	;				
 4378            	1.347       	0           	                	;				
 4759            	0.5         	0.371304228 	Demand_Pattern_2022	;				
 4760            	0.8236      	0.08384289  	Demand_Pattern_2022	;				
 4761            	0.8344      	0.383583389 	Demand_Pattern_2022	;				
 4398            	3.9017      	0.444979194 	Demand_Pattern_2022	;				
 4683            	1.604       	0.359929883 	Demand_Pattern_2022	;				
 5844            	4.104       	1.680880427 	Demand_Pattern_2022	;				
 4762            	0.8733      	0.419214451 	Demand_Pattern_2022	;				
 4692            	1.1478      	1.716813094 	Demand_Pattern_2022	;				
 5787            	1.1059      	0.131753113 	Demand_Pattern_2022	;				
 6286            	0.9055      	0.047910223 	Demand_Pattern_2022	;				
 5845            	2.374       	0.311718055 	Demand_Pattern_2022	;				
 4690            	1.3806      	0.120077163 	Demand_Pattern_2022	;				
 4758            	0.8513      	0           	                	;				
 4728            	1.0199      	0.577335518 	Demand_Pattern_2022	;				
 4708            	0.8247      	0           	                	;				
 5590            	7.9194      	0.31141645  	Demand_Pattern_2022	;				
 4693            	0.8657      	0           	                	;				
 6279            	1.234       	0.539894824 	Demand_Pattern_2022	;				
 4379            	2.4624      	0           	                	;				
 5129            	2.4633      	0.216500819 	Demand_Pattern_2022	;				
 4702            	1.056       	0.383583389 	Demand_Pattern_2022	;				
 1491            	8.9886      	0.299438894 	Demand_Pattern_2022	;				
 5868            	10.5461     	0.144032274 	Demand_Pattern_2022	;				
 4374            	1.5695      	0           	                	;				
 4701            	1.0677      	0.011977556 	Demand_Pattern_2022	;				
 5917            	1.5235      	0.287461338 	Demand_Pattern_2022	;				
 4694            	0.9223      	0.096122051 	Demand_Pattern_2022	;				
 5986            	0.8921      	0.023955112 	Demand_Pattern_2022	;				
 5408            	0.9541      	0.180266547 	Demand_Pattern_2022	;				
 5111            	0.848       	0.023955112 	Demand_Pattern_2022	;				
 4710            	0.967       	0.658765566 	Demand_Pattern_2022	;				
 4703            	1.0941      	2.245031968 	Demand_Pattern_2022	;				
 4477            	5.6129      	0           	                	;				
 5782            	0.861       	0           	                	;				
 4672            	1.413       	2.254193323 	Demand_Pattern_2022	;				
 5918            	1.4379      	0.059887779 	Demand_Pattern_2022	;				
 4706            	0.9179      	0.120077163 	Demand_Pattern_2022	;				
 6277            	1.4615      	0.071865335 	Demand_Pattern_2022	;				
 4673            	1.4481      	1.89366023  	Demand_Pattern_2022	;				
 6275            	1.1016      	0.023955112 	Demand_Pattern_2022	;				
 4926            	2.9949      	0.263506227 	Demand_Pattern_2022	;				
 4627            	4.1655      	0           	                	;				
 4629            	4.1536      	0           	                	;				
 4709            	0.8343      	0           	                	;				
 4704            	0.8607      	0.035932667 	Demand_Pattern_2022	;				
 4717            	1.101       	0           	                	;				
 4718            	1.1086      	0.300042104 	Demand_Pattern_2022	;				
 6276            	1.1901      	0.56294512  	Demand_Pattern_2022	;				
 4719            	1.2897      	0.383281784 	Demand_Pattern_2022	;				
 5794            	1.2898      	0.059887779 	Demand_Pattern_2022	;				
 6228            	1.3128      	0.059887779 	Demand_Pattern_2022	;				
 6287            	1.3248      	1.282503281 	Demand_Pattern_2022	;				
 5779            	1.357       	0.360231488 	Demand_Pattern_2022	;				
 6288            	1.3452      	1.64333798  	Demand_Pattern_2022	;				
 5674            	11.4978     	0.035932667 	Demand_Pattern_2022	;				
 5773            	5.4135      	0.216199214 	Demand_Pattern_2022	;				
 4716            	1.1272      	0           	                	;				
 5232            	5.8981      	0.203618448 	Demand_Pattern_2022	;				
 6220            	1.3203      	0.155708225 	Demand_Pattern_2022	;				
 6384            	1.4645      	2.004576037 	Demand_Pattern_2022	;				
 5772            	4.3012      	0.071865335 	Demand_Pattern_2022	;				
 6355            	3.737       	0           	                	;				
 4626            	4.2329      	0.047910223 	Demand_Pattern_2022	;				
 6351            	3.4248      	2.120027368 	Demand_Pattern_2022	;				
 6380            	1.6987      	0.288667759 	Demand_Pattern_2022	;				
 4623            	1.9666      	0.107798002 	Demand_Pattern_2022	;				
 6219            	1.5729      	0.335371561 	Demand_Pattern_2022	;				
 4725            	1.3195      	0.191640892 	Demand_Pattern_2022	;				
 4835            	1.1908      	0.203618448 	Demand_Pattern_2022	;				
 5814            	4.5281      	0.252433486 	Demand_Pattern_2022	;				
 4724            	1.3953      	0           	                	;				
 4723            	1.3888      	0           	                	;				
 6218            	1.383       	0.443471168 	Demand_Pattern_2022	;				
 4830            	1.5581      	0           	                	;				
 5793            	1.5812      	0           	                	;				
 4735            	1.3723      	4.511907811 	Demand_Pattern_2022	;				
 4734            	1.4294      	0.275785387 	Demand_Pattern_2022	;				
 6229            	1.4294      	0.323394005 	Demand_Pattern_2022	;				
 4733            	1.423       	0.023955112 	Demand_Pattern_2022	;				
 4667            	1.2658      	0.852517695 	Demand_Pattern_2022	;				
 6281            	1.4427      	0.503660552 	Demand_Pattern_2022	;				
 5231            	6.0296      	3.079136644 	Demand_Pattern_2022	;				
 4622            	1.9731      	0.095820446 	Demand_Pattern_2022	;				
 6282            	1.4543      	1.473540963 	Demand_Pattern_2022	;				
 5233            	6.2766      	0           	                	;				
 6165            	1.4577      	0.335673166 	Demand_Pattern_2022	;				
 5229            	6.3283      	0           	                	;				
 4729            	1.4365      	0.144333879 	Demand_Pattern_2022	;				
 4645            	1.5168      	0.144032274 	Demand_Pattern_2022	;				
 5919            	1.7819      	0.167685781 	Demand_Pattern_2022	;				
 6378            	1.259       	0.503660552 	Demand_Pattern_2022	;				
 6360            	2.4337      	0           	                	;				
 6379            	1.8705      	0.155708225 	Demand_Pattern_2022	;				
 4661            	1.1967      	0.143730669 	Demand_Pattern_2022	;				
 5571            	10.942      	0.023955112 	Demand_Pattern_2022	;				
 6280            	1.4937      	1.596935783 	Demand_Pattern_2022	;				
 5785            	1.5746      	0.011977556 	Demand_Pattern_2022	;				
 6377            	1.3501      	3.755813773 	Demand_Pattern_2022	;				
 4628            	4.5107      	0.144032274 	Demand_Pattern_2022	;				
 4630            	4.502       	0.071865335 	Demand_Pattern_2022	;				
 4631            	4.3365      	0.191640892 	Demand_Pattern_2022	;				
 4777            	1.4938      	1.162727723 	Demand_Pattern_2022	;				
 5234            	7.2511      	0           	                	;				
 4621            	2.014       	0.131753113 	Demand_Pattern_2022	;				
 6252            	2.0111      	1.96804016  	Demand_Pattern_2022	;				
 4662            	1.2525      	0.347952327 	Demand_Pattern_2022	;				
 5786            	2.0158      	0.071865335 	Demand_Pattern_2022	;				
 5228            	7.1861      	1.560501659 	Demand_Pattern_2022	;				
 6126            	7.9374      	0           	                	;				
 5811            	7.2512      	0           	                	;				
 6127            	6.9888      	0           	                	;				
 6266            	1.0404      	1.812331935 	Demand_Pattern_2022	;				
 4666            	2.1141      	1.524568992 	Demand_Pattern_2022	;				
 5792            	1.6666      	0.275483782 	Demand_Pattern_2022	;				
 6376            	1.3663      	0.803401051 	Demand_Pattern_2022	;				
 5862            	11.8453     	0.383281784 	Demand_Pattern_2022	;				
 5816            	4.6251      	0.131753113 	Demand_Pattern_2022	;				
 5235            	7.1663      	0.011977556 	Demand_Pattern_2022	;				
 4705            	0.6154      	3.540519374 	Demand_Pattern_2022	;				
 2618            	1.4623      	1.545104692 	Demand_Pattern_2022	;				
 5230            	6.9892      	0.011977556 	Demand_Pattern_2022	;				
 6212            	1.8941      	0.360834699 	Demand_Pattern_2022	;				
 4674            	1.6843      	0.527917269 	Demand_Pattern_2022	;				
 5867            	12.7383     	0.08384289  	Demand_Pattern_2022	;				
 4822            	2.145       	0           	                	;				
 5236            	7.0756      	0.011977556 	Demand_Pattern_2022	;				
 5227            	7.9013      	0.035932667 	Demand_Pattern_2022	;				
 4678            	1.6784      	0.479403835 	Demand_Pattern_2022	;				
 5856            	9.8361      	0.227573559 	Demand_Pattern_2022	;				
 5572            	11.4913     	0.132054718 	Demand_Pattern_2022	;				
 6375            	1.3524      	1.740164995 	Demand_Pattern_2022	;				
 6381            	1.6676      	3.085070651 	Demand_Pattern_2022	;				
 4731            	1.6686      	0           	                	;				
 4675            	1.6681      	0           	                	;				
 5570            	12.0979     	0.203618448 	Demand_Pattern_2022	;				
 4676            	1.6669      	0           	                	;				
 6176            	1.6569      	0           	                	;				
 6367            	1.6568      	0.108099607 	Demand_Pattern_2022	;				
 6221            	1.1609      	1.931805887 	Demand_Pattern_2022	;				
 5873            	11.615      	0.335371561 	Demand_Pattern_2022	;				
 4687            	1.6856      	0.252433486 	Demand_Pattern_2022	;				
 6383            	1.6855      	0.071865335 	Demand_Pattern_2022	;				
 6382            	1.7125      	0.203920053 	Demand_Pattern_2022	;				
 6366            	1.7124      	0.011977556 	Demand_Pattern_2022	;				
 5684            	4.6161      	0.107798002 	Demand_Pattern_2022	;				
 6368            	1.7154      	0.456051934 	Demand_Pattern_2022	;				
 4659            	1.7153      	0.096122051 	Demand_Pattern_2022	;				
 6361            	1.3341      	0           	                	;				
 6213            	2.2301      	1.741069811 	Demand_Pattern_2022	;				
 4679            	1.627       	1.321452    	Demand_Pattern_2022	;				
 4682            	1.6554      	0           	                	;				
 4680            	1.6906      	1.032482636 	Demand_Pattern_2022	;				
 6215            	1.9011      	0.07216694  	Demand_Pattern_2022	;				
 6214            	1.9013      	0.07216694  	Demand_Pattern_2022	;				
 4681            	1.6444      	2.82085946  	Demand_Pattern_2022	;				
 6254            	1.7107      	0           	                	;				
 5685            	4.5636      	0.095820446 	Demand_Pattern_2022	;				
 6385            	1.7332      	0           	                	;				
 5778            	1.8754      	0.288064548 	Demand_Pattern_2022	;				
 4660            	1.7632      	0.359929883 	Demand_Pattern_2022	;				
 6253            	1.6275      	0.648597642 	Demand_Pattern_2022	;				
 4668            	2.5786      	0           	                	;				
 4669            	2.5938      	0           	                	;				
 6374            	1.4573      	1.836588652 	Demand_Pattern_2022	;				
 6244            	1.6369      	0.647089616 	Demand_Pattern_2022	;				
 4326            	11.5363     	0.095820446 	Demand_Pattern_2022	;				
 6274            	1.2704      	3.959733826 	Demand_Pattern_2022	;				
 6192            	2.6162      	1.524568992 	Demand_Pattern_2022	;				
 5781            	1.9533      	0.07216694  	Demand_Pattern_2022	;				
 5912            	1.934       	0.216500819 	Demand_Pattern_2022	;				
 6269            	1.6119      	0.551570775 	Demand_Pattern_2022	;				
 4764            	1.4903      	0.263807832 	Demand_Pattern_2022	;				
 5828            	1.4969      	1.716209884 	Demand_Pattern_2022	;				
 6270            	1.7348      	0.539593219 	Demand_Pattern_2022	;				
 2617            	1.4073      	0           	                	;				
 6365            	1.3244      	0           	                	;				
 6273            	1.3378      	0.480007046 	Demand_Pattern_2022	;				
 4325            	12.6863     	0.084144495 	Demand_Pattern_2022	;				
 4327            	12.6745     	0           	                	;				
 6369            	1.3343      	0.239551115 	Demand_Pattern_2022	;				
 4324            	13.955      	0.07216694  	Demand_Pattern_2022	;				
 5771            	4.8176      	0.035932667 	Demand_Pattern_2022	;				
 5827            	1.4         	0           	                	;				
 5911            	2.0815      	0.143730669 	Demand_Pattern_2022	;				
 4321            	14.2693     	0           	                	;				
 4648            	4.831       	0.107798002 	Demand_Pattern_2022	;				
 4322            	14.3203     	0.011977556 	Demand_Pattern_2022	;				
 6250            	2.739       	0.011977556 	Demand_Pattern_2022	;				
 4323            	14.3412     	0           	                	;				
 6177            	4.8754      	1.824309491 	Demand_Pattern_2022	;				
 4316            	14.3547     	0           	                	;				
 5511            	2.5462      	0           	                	;				
 5512            	2.5953      	0           	                	;				
 4663            	1.7341      	0.227875164 	Demand_Pattern_2022	;				
 5686            	4.6687      	0.384488205 	Demand_Pattern_2022	;				
 6272            	1.3725      	0.491079786 	Demand_Pattern_2022	;				
 5795            	2.3183      	0           	                	;				
 6163            	1.8265      	0.047910223 	Demand_Pattern_2022	;				
 4825            	2.3455      	1.596735931 	Demand_Pattern_2022	;				
 5510            	2.2625      	0.011977556 	Demand_Pattern_2022	;				
 6217            	2.3896      	1.668902871 	Demand_Pattern_2022	;				
 6268            	1.8553      	1.824309491 	Demand_Pattern_2022	;				
 6231            	2.2391      	0.096122051 	Demand_Pattern_2022	;				
 6232            	2.2805      	0.300042104 	Demand_Pattern_2022	;				
 4827            	2.1105      	0.143730669 	Demand_Pattern_2022	;				
 4826            	2.1588      	0           	                	;				
 6233            	2.3398      	0.07216694  	Demand_Pattern_2022	;				
 4828            	2.2202      	0.059887779 	Demand_Pattern_2022	;				
 4829            	2.2404      	0.311718055 	Demand_Pattern_2022	;				
 6364            	1.4757      	0           	                	;				
 4726            	2.1416      	0.276388598 	Demand_Pattern_2022	;				
 6227            	2.1571      	0.095820446 	Demand_Pattern_2022	;				
 6235            	2.3425      	0           	                	;				
 6234            	2.1457      	1.25975459  	Demand_Pattern_2022	;				
 6225            	2.2225      	0.312321265 	Demand_Pattern_2022	;				
 6265            	1.1393      	0.119775558 	Demand_Pattern_2022	;				
 4299            	14.3152     	0           	                	;				
 4331            	11.4333     	0           	                	;				
 6237            	2.3274      	0.360834699 	Demand_Pattern_2022	;				
 4315            	14.5143     	0.299740499 	Demand_Pattern_2022	;				
 4330            	12.1321     	0.011977556 	Demand_Pattern_2022	;				
 6224            	2.0567      	0.119775558 	Demand_Pattern_2022	;				
 4727            	2.118       	0.035932667 	Demand_Pattern_2022	;				
 4831            	2.1258      	0           	                	;				
 4766            	1.1473      	0           	                	;				
 6223            	2.0591      	0.395560945 	Demand_Pattern_2022	;				
 5505            	1.9555      	0.011977556 	Demand_Pattern_2022	;				
 4832            	2.1759      	0.203618448 	Demand_Pattern_2022	;				
 4833            	2.1792      	0.011977556 	Demand_Pattern_2022	;				
 4834            	2.1816      	0.15600983  	Demand_Pattern_2022	;				
 6222            	2.1205      	1.680880427 	Demand_Pattern_2022	;				
 6271            	1.4023      	4.65785147  	Demand_Pattern_2022	;				
 4715            	1.7833      	0.011977556 	Demand_Pattern_2022	;				
 4713            	1.7685      	0           	                	;				
 5507            	1.9104      	0.011977556 	Demand_Pattern_2022	;				
 4815            	2.2981      	0           	                	;				
 4817            	2.4998      	0.288667759 	Demand_Pattern_2022	;				
 4647            	4.9114      	0.107798002 	Demand_Pattern_2022	;				
 4314            	15.2349     	0.179964941 	Demand_Pattern_2022	;				
 4821            	1.7855      	0.084144495 	Demand_Pattern_2022	;				
 4688            	1.8798      	3.589636018 	Demand_Pattern_2022	;				
 6174            	2.6475      	0           	                	;				
 6191            	1.979       	0           	                	;				
 6236            	2.3038      	0           	                	;				
 5509            	1.936       	0           	                	;				
 6363            	1.6093      	0.07216694  	Demand_Pattern_2022	;				
 6164            	1.8999      	0           	                	;				
 6345            	1.985       	2.726848645 	Demand_Pattern_2022	;				
 4665            	1.8683      	1.716813094 	Demand_Pattern_2022	;				
 5819            	4.6468      	0.095820446 	Demand_Pattern_2022	;				
 6388            	1.9974      	0           	                	;				
 4714            	2.264       	0.63571527  	Demand_Pattern_2022	;				
 4313            	15.488      	0.108099607 	Demand_Pattern_2022	;				
 4837            	2.2261      	0.12007716  	Demand_Pattern_2022	;				
 6261            	1.9201      	0.371304228 	Demand_Pattern_2022	;				
 4838            	2.0118      	0           	                	;				
 4839            	1.9704      	0           	Demand_Pattern_2022	;				
 5166            	3.0415      	3.099559145 	Demand_Pattern_2022	;				
 4287            	11.8652     	0           	                	;				
 4277            	10.9617     	0.071865335 	Demand_Pattern_2022	;				
 4275            	9.782       	0.240455931 	Demand_Pattern_2022	;				
 4276            	14.5517     	0.108099607 	Demand_Pattern_2022	;				
 4328            	8.9882      	0.252131881 	Demand_Pattern_2022	;				
 4280            	12.6946     	0           	                	;				
 4286            	10.4309     	0.011977556 	Demand_Pattern_2022	;				
 4818            	2.3321      	0.07216694  	Demand_Pattern_2022	;				
 4769            	1.1326      	0           	                	;				
 4467            	2.2442      	0.07216694  	Demand_Pattern_2022	;				
 4765            	1.0756      	0.07216694  	Demand_Pattern_2022	;				