[TITLE]


[JUNCTIONS]
;ID              	Elev        	Demand      	Pattern         
 J-1             	401         	2           	11              	;
 J-2             	394         	0.8         	11              	;
 J-3             	403         	0.6         	11              	;
 J-4             	402         	0.4         	11              	;
 J-5             	417         	1.4         	11              	;
 J-6             	411         	0.2         	11              	;
 J-7             	411         	0.4         	11              	;
 J-8             	401         	0.8         	11              	;
 J-9             	411         	0           	                	;
 J-10            	393         	0.1         	11              	;
 J-11            	394         	0.7         	11              	;
 J-12            	437         	0.5         	11              	;
 J-13            	428         	0.4         	11              	;
 J-14            	437         	0.1         	11              	;
 J-15            	436         	0.1         	11              	;
 J-16            	425         	0.6         	11              	;
 J-17            	463         	0.7         	11              	;
 J-18            	459         	0.2         	11              	;
 J-19            	459         	0.3         	11              	;
 J-20            	458         	0           	                	;
 J-21            	459         	0.2         	11              	;
 J-22            	456         	0.5         	11              	;
 J-23            	409         	1.3         	11              	;
 J-24            	418         	0.3         	11              	;
 J-25            	463         	0.2         	11              	;
 J-26            	437         	0           	                	;
 J-27            	418         	0.1         	11              	;
 J-28            	437         	0.3         	11              	;
 J-29            	399         	0.5         	11              	;
 J-30            	402         	2           	11              	;
 J-31            	399         	0.3         	11              	;
 J-32            	399         	0.2         	11              	;
 J-35            	422         	6.1         	11              	;
 J-36            	421         	1.2         	11              	;
 J-37            	427         	1.6         	11              	;
 J-38            	426         	0.3         	11              	;
 J-39            	398         	0.1         	11              	;
 J-40            	424         	0           	                	;
 J-41            	424         	0.3         	11              	;
 J-42            	425         	2.4         	11              	;
 J-43            	386         	0.1         	11              	;
 J-44            	388         	0.2         	11              	;
 J-46            	425         	0.1         	11              	;
 J-47            	426         	0.5         	11              	;
 J-48            	425         	0.9         	11              	;
 J-49            	421         	0           	                	;
 J-52            	408         	0.8         	11              	;
 J-53            	406         	0.7         	11              	;
 J-54            	402         	0.7         	11              	;
 J-55            	402         	1.6         	11              	;
 J-56            	409         	3.9         	11              	;
 J-57            	407         	3.1         	11              	;
 J-58            	409         	0.1         	11              	;
 J-59            	409         	0           	                	;
 J-62            	403         	1.3         	11              	;
 J-63            	403         	0.6         	11              	;
 J-64            	398         	0.3         	11              	;
 J-65            	398         	0           	                	;
 J-66            	408         	0.8         	11              	;
 J-67            	414         	0.5         	11              	;
 J-68            	413         	0.2         	11              	;
 J-69            	406         	2.3         	11              	;
 J-70            	401         	1.6         	11              	;
 J-71            	424         	0.1         	11              	;
 J-72            	424         	0.1         	11              	;
 J-74            	406         	2.4         	11              	;
 J-75            	403         	1.1         	11              	;
 J-76            	406         	0.1         	11              	;
 J-77            	409         	0.2         	11              	;
 J-78            	409         	3.8         	11              	;
 J-79            	417         	3.1         	11              	;
 J-80            	418         	0.5         	11              	;
 J-81            	419         	0.8         	11              	;
 J-82            	429         	0.6         	11              	;
 J-83            	422         	3.4         	11              	;
 J-84            	423         	4.8         	11              	;
 J-87            	424         	0.3         	11              	;
 J-88            	409         	0.6         	11              	;
 J-89            	425         	3.1         	11              	;
 J-90            	398         	0           	                	;
 J-95            	451         	0.3         	11              	;
 J-97            	403         	0.1         	11              	;
 J-98            	412         	0.3         	11              	;
 J-100           	394         	0           	                	;
 J-101           	394         	0           	                	;
 J-102           	409         	3.2         	11              	;
 J-103           	447         	0.5         	11              	;
 J-104           	456         	0.7         	11              	;
 J-106           	416         	0.3         	11              	;
 J-107           	416         	0           	                	;
 J-108           	416         	0.2         	11              	;
 J-109           	402         	0.4         	11              	;
 J-110           	394         	1.3         	11              	;
 J-111           	402         	0.2         	11              	;
 J-112           	436         	0.2         	11              	;
 J-113           	388         	0.3         	11              	;
 J-114           	415         	0.4         	11              	;
 J-115           	442         	0.2         	11              	;
 J-116           	441         	0           	                	;
 J-117           	429         	0.2         	11              	;
 J-136           	386         	3.5         	11              	;
 J-137           	416         	3.9         	11              	;
 J-138           	403         	0.1         	11              	;
 J-203           	450         	0.5         	11              	;
 J-204           	463         	0.3         	11              	;
 J-215           	464         	0           	                	;
 J-217           	387         	0.1         	11              	;
 J-218           	387         	0           	                	;
 J-219           	412         	0.5         	11              	;
 J-220           	405         	5.8         	11              	;
 J-225           	405         	1.8         	11              	;
 J-226           	405         	2           	11              	;
 J-229           	401         	1.1         	11              	;
 J-230           	398         	0.6         	11              	;
 J-235           	416         	1.2         	11              	;
 J-236           	404         	1.2         	11              	;
 J-237           	404         	2.4         	11              	;
 J-238           	393         	0.6         	11              	;
 J-239           	393         	0           	                	;
 J-241           	399         	2.1         	11              	;
 J-242           	405         	1.9         	11              	;
 J-243           	413         	2.5         	11              	;
 J-245           	457         	0           	                	;
 J-246           	457         	4.3         	11              	;
 J-247           	408         	1.9         	11              	;
 J-248           	408         	4.4         	11              	;
 J-249           	398         	0.5         	11              	;
 J-250           	398         	1.7         	11              	;
 J-252           	387         	2.8         	11              	;
 J-253           	387         	2           	11              	;
 J-256           	394         	0           	                	;
 J-257           	394         	0.4         	11              	;
 J-260           	396         	4.4         	11              	;
 J-261           	396         	0.1         	11              	;
 J-262           	389         	0.7         	11              	;
 J-263           	389         	2.1         	11              	;
 J-265           	410         	1.1         	11              	;
 J-270           	398         	1.3         	11              	;
 J-275           	387         	1.6         	11              	;
 J-276           	387         	0.9         	11              	;
 J-278           	402         	0.7         	11              	;
 J-279           	398         	1.9         	11              	;
 J-282           	408         	3.2         	11              	;
 J-283           	413         	3.5         	11              	;
 J-284           	393         	0.3         	11              	;
 J-285           	388         	0.4         	11              	;
 J-286           	411         	0.8         	11              	;
 J-287           	411         	0.6         	11              	;
 J-288           	459         	0           	                	;
 J-289           	456         	1.1         	11              	;
 J-290           	458         	0           	                	;
 J-300           	413         	3.7         	11              	;
 J-301           	418         	0.9         	11              	;
 J-302           	445         	2.5         	11              	;
 J-303           	444         	1.3         	11              	;
 J-304           	408         	1.8         	11              	;
 J-305           	403         	0.8         	11              	;
 J-308           	417         	2.4         	11              	;
 J-309           	417         	2.1         	11              	;
 J-314           	392         	1.5         	11              	;
 J-315           	392         	1           	11              	;
 J-322           	400         	0.3         	11              	;
 J-323           	400         	0.6         	11              	;
 J-324           	408         	0.7         	11              	;
 J-327           	408         	0.6         	11              	;
 J-328           	408         	0           	                	;
 J-329           	458         	0           	                	;
 J-330           	402         	3.4         	11              	;
 J-331           	403         	0.2         	11              	;
 J-332           	391         	1.5         	11              	;
 J-333           	408         	1.3         	11              	;
 J-334           	408         	3.2         	11              	;
 J-336           	418         	2           	11              	;
 J-337           	389         	0.6         	11              	;
 J-338           	390         	0.5         	11              	;
 J-339           	459         	0           	                	;
 J-340           	399         	0.8         	11              	;
 J-341           	399         	2.3         	11              	;
 J-344           	444         	2.8         	11              	;
 J-347           	413         	2.1         	11              	;
 J-348           	395         	0.5         	11              	;
 J-349           	395         	1.6         	11              	;
 J-350           	457         	0.4         	11              	;
 J-353           	392         	3.9         	11              	;
 J-354           	412         	0.6         	11              	;
 J-355           	390         	2.4         	11              	;
 J-356           	389         	0.1         	11              	;
 J-358           	408         	3.8         	11              	;
 J-359           	408         	0.4         	11              	;
 J-369           	399         	3.1         	11              	;
 J-378           	399         	3.3         	11              	;
 J-380           	424         	0           	                	;
 J-385           	406         	1.4         	11              	;
 J-392           	408         	4.9         	11              	;
 J-398           	398         	0.8         	11              	;
 J-399           	436         	2.5         	11              	;
 J-400           	438         	0.7         	11              	;
 J-403           	397         	2           	11              	;
 J-408           	457         	0           	                	;
 J-409           	458         	1.1         	11              	;
 J-410           	400         	0.1         	11              	;
 J-415           	389         	2.5         	11              	;
 J-420           	396         	1.1         	11              	;
 J-427           	394         	0.1         	11              	;
 J-432           	395         	1.2         	11              	;
 J-433           	419         	0.7         	11              	;
 J-437           	413         	0           	                	;
 J-442           	390         	0.3         	11              	;
 J-443           	387         	0.6         	11              	;
 J-447           	458         	0           	                	;
 J-455           	456         	2           	11              	;
 J-456           	395         	0.8         	11              	;
 J-457           	399         	0.4         	11              	;
 J-458           	399         	0.2         	11              	;
 J-460           	412         	0.1         	11              	;
 J-461           	402         	0           	                	;
 J-464           	403         	0.5         	11              	;
 J-465           	403         	1.5         	11              	;
 J-468           	408         	1.4         	11              	;
 J-470           	393         	0           	                	;
 J-472           	411         	1           	11              	;
 J-473           	413         	0.7         	11              	;
 J-474           	388         	0.5         	11              	;
 J-475           	399         	3.3         	11              	;
 J-478           	396         	3.5         	11              	;
 J-479           	403         	0.3         	11              	;
 J-481           	448         	2.2         	11              	;
 J-486           	420         	0           	                	;
 J-489           	394         	0.6         	11              	;
 J-490           	394         	1.2         	11              	;
 J-491           	442         	0.4         	11              	;
 J-492           	432         	0.3         	11              	;
 J-503           	432         	0.1         	11              	;
 J-509           	363         	0.7         	11              	;
 J-511           	394         	0           	                	;
 J-522           	428         	0.5         	11              	;
 J-523           	415         	0.9         	11              	;
 J-524           	389         	1.8         	11              	;
 J-527           	416         	3.2         	11              	;
 J-530           	391         	3.4         	11              	;
 J-531           	416         	1.5         	11              	;
 J-555           	385         	1.6         	11              	;
 J-556           	385         	0.2         	11              	;
 J-558           	389         	0           	                	;
 J-559           	389         	0.4         	11              	;
 J-562           	386         	0.8         	11              	;
 J-605           	398         	1           	11              	;
 J-609           	385         	1.2         	11              	;
 J-612           	396         	2           	11              	;
 J-613           	388         	1.7         	11              	;
 J-658           	385         	0.1         	11              	;
 J-659           	385         	0.2         	11              	;
 J-660           	458         	0.1         	11              	;
 J-661           	458         	0.1         	11              	;
 J-674           	392         	2.2         	11              	;
 J-675           	389         	0.7         	11              	;
 J-695           	459         	0.3         	11              	;
 J-719           	402         	3.4         	11              	;
 J-720           	403         	1.4         	11              	;
 J-721           	401         	2.4         	11              	;
 J-722           	392         	1.6         	11              	;
 J-726           	389         	1.5         	11              	;
 J-727           	389         	0.2         	11              	;
 J-732           	406         	0           	                	;
 J-733           	406         	1.6         	11              	;
 J-754           	400         	0.4         	11              	;
 J-755           	400         	0.3         	11              	;
 J-773           	389         	1.7         	11              	;
 J-774           	389         	0.3         	11              	;
 J-777           	382         	0.2         	11              	;
 J-778           	381         	0.3         	11              	;
 J-787           	399         	0.6         	11              	;
 J-788           	399         	1.2         	11              	;
 J-791           	395         	0.6         	11              	;
 J-792           	394         	2.6         	11              	;
 J-830           	414         	0.7         	11              	;
 J-831           	421         	2           	11              	;
 J-839           	411         	1           	11              	;
 J-840           	420         	0.6         	11              	;
 J-852           	437         	0.1         	11              	;
 J-861           	418         	4.1         	11              	;
 J-862           	419         	3.3         	11              	;
 J-881           	402         	2           	11              	;
 J-882           	398         	2.9         	11              	;
 J-885           	459         	0           	                	;
 J-916           	411         	0.2         	11              	;
 J-919           	462         	0.3         	11              	;
 J-933           	436         	1.3         	11              	;
 J-934           	426         	0.4         	11              	;
 J-969           	420         	0.3         	11              	;
 J-970           	423         	0.8         	11              	;
 J-988           	403         	1           	11              	;
 J-989           	403         	0.3         	11              	;
 J-1000          	417         	0.8         	11              	;
 J-1001          	417         	0.3         	11              	;
 J-1004          	421         	0.8         	11              	;
 J-1005          	421         	1.6         	11              	;
 J-1006          	417         	1           	11              	;
 J-1026          	401         	0.8         	11              	;
 J-1027          	406         	0.5         	11              	;
 J-1044          	403         	2.6         	11              	;
 J-1053          	382         	1.4         	11              	;
 J-1054          	382         	0.3         	11              	;
 J-1060          	437         	0.2         	11              	;
 J-1061          	437         	0.3         	11              	;
 J-1071          	399         	0.4         	11              	;
 J-1072          	399         	1.4         	11              	;
 J-1092          	445         	1.7         	11              	;
 J-1102          	386         	0.1         	11              	;
 J-1103          	386         	1.3         	11              	;
 J-1107          	389         	0.8         	11              	;
 J-1177          	412         	1.1         	11              	;
 J-1179          	402         	0.8         	11              	;
 J-1180          	400         	3.7         	11              	;
 J-1182          	411         	5.4         	11              	;
 J-1183          	407         	1.5         	11              	;
 J-1187          	387         	1.4         	11              	;
 J-1194          	428         	2.6         	11              	;
 J-1198          	399         	3.3         	11              	;
 J-1199          	399         	4.4         	11              	;
 J-1207          	403         	0           	                	;
 J-1214          	389         	2.8         	11              	;
 J-1217          	419         	3.2         	11              	;
 J-1224          	440         	1.9         	11              	;
 J-1234          	385         	1.7         	11              	;
 J-1235          	389         	5.5         	11              	;
 J-1238          	422         	1.1         	11              	;
 J-1243          	398         	0.9         	11              	;
 J-1244          	403         	2.4         	11              	;
 J-1245          	448         	2.4         	11              	;
 J-1260          	389         	0.2         	11              	;
 J-1264          	429         	0.8         	11              	;
 J-1265          	427         	4.1         	11              	;
 J-1271          	414         	0.8         	11              	;
 J-1276          	416         	0.8         	11              	;
 J-1277          	398         	2.4         	11              	;
 J-1300          	405         	1.4         	11              	;
 J-1301          	399         	2.3         	11              	;
 J-1302          	385         	0           	                	;
 J-1311          	408         	1.8         	11              	;
 J-1351          	386         	0.1         	11              	;
 J-1363          	399         	0.1         	11              	;
 J-1367          	398         	1.7         	11              	;
 J-1394          	419         	0.5         	11              	;
 J-1410          	422         	0.1         	11              	;
 J-1411          	422         	1.6         	11              	;
 J-1416          	400         	2.2         	11              	;
 J-1426          	385         	0.1         	11              	;
 J-1427          	387         	0.7         	11              	;
 J-1431          	422         	0.8         	11              	;
 J-1432          	422         	1.2         	11              	;
 J-1447          	422         	0.6         	11              	;
 J-1448          	399         	1.1         	11              	;
 J-1457          	430         	1.7         	11              	;
 J-1474          	402         	2.1         	11              	;
 J-1480          	429         	0.1         	11              	;
 J-1481          	385         	0.4         	11              	;
 J-1488          	401         	5.6         	11              	;
 J-1489          	401         	0.9         	11              	;
 J-1527          	382         	0.3         	11              	;
 J-1528          	382         	0.4         	11              	;
 J-1531          	407         	5           	11              	;
 J-1535          	385         	1.2         	11              	;
 J-1546          	411         	0.1         	11              	;
 J-1556          	389         	0.1         	11              	;
 J-1557          	385         	0.4         	11              	;
 J-1564          	384         	0.3         	11              	;
 J-1565          	384         	0.1         	11              	;
 J-1569          	436         	4.4         	11              	;
 J-1570          	394         	1.9         	11              	;
 J-1572          	413         	1.4         	11              	;
 J-1590          	396         	1.8         	11              	;
 J-1592          	398         	0.3         	11              	;
 J-1593          	400         	0.3         	11              	;
 J-1596          	395         	1.1         	11              	;
 J-1599          	384         	0.5         	11              	;
 J-1600          	405         	0.3         	11              	;
 J-1601          	398         	1.5         	11              	;
 J-1606          	402         	0.7         	11              	;
 J-1611          	411         	1.4         	11              	;
 J-1619          	395         	0.6         	11              	;
 J-1620          	398         	0.6         	11              	;
 J-1624          	411         	0.8         	11              	;
 J-1625          	398         	3.2         	11              	;
 J-1628          	400         	0.1         	11              	;
 J-1629          	401         	2.1         	11              	;
 J-1646          	401         	0.4         	11              	;
 J-1647          	401         	0           	                	;
 J-1652          	395         	0           	                	;
 J-1654          	386         	3.1         	11              	;
 J-1655          	383         	1           	11              	;
 J-1656          	384         	0.1         	11              	;
 J-1672          	390         	2.2         	11              	;
 J-1680          	381         	0.2         	11              	;
 J-1689          	409         	0.1         	11              	;
 J-1690          	425         	0.6         	11              	;
 J-1708          	406         	5.7         	11              	;
 J-1733          	406         	1.2         	11              	;
 J-1734          	436         	5           	11              	;
 J-1736          	392         	1.5         	11              	;
 J-1742          	414         	2.5         	11              	;
 J-1743          	413         	1.8         	11              	;
 J-1748          	428         	2.3         	11              	;
 J-1752          	429         	4.1         	11              	;
 J-1757          	407         	6.4         	11              	;
 J-1758          	421         	4.8         	11              	;
 J-1771          	399         	3.6         	11              	;
 J-1772          	422         	1.1         	11              	;
 J-1774          	434         	3.6         	11              	;
 J-1776          	399         	0.1         	11              	;
 J-1777          	399         	1.8         	11              	;
 J-1781          	400         	1.8         	11              	;
 J-1782          	408         	2.9         	11              	;
 J-1783          	411         	1.1         	11              	;
 J-1786          	428         	1.9         	11              	;
 J-1787          	408         	1.7         	11              	;
 J-1799          	399         	0.1         	11              	;
 J-1800          	399         	0.1         	11              	;
 J-1812          	406         	0.1         	11              	;
 J-1813          	394         	1.7         	11              	;
 J-1814          	393         	0.9         	11              	;
 J-1815          	428         	4.9         	11              	;
 J-1820          	421         	0.4         	11              	;
 J-1821          	421         	1.2         	11              	;
 J-1822          	451         	0.1         	11              	;
 J-1823          	449         	0           	                	;
 J-1825          	452         	0.3         	11              	;
 J-1826          	455         	0.1         	11              	;
 J-1827          	393         	1.2         	11              	;
 J-1828          	393         	0.1         	11              	;
 J-1829          	389         	0.1         	11              	;
 J-1837          	398         	1.1         	11              	;
 J-1838          	398         	1           	11              	;
 J-1842          	398         	0.3         	11              	;
 J-1843          	398         	0.2         	11              	;
 J-1849          	456         	0           	                	;
 J-1850          	457         	0.8         	11              	;
 J-1851          	419         	4.5         	11              	;
 J-1856          	398         	0           	                	;
 J-1857          	398         	1.3         	11              	;
 J-1858          	384         	0.4         	11              	;
 J-1859          	386         	0.3         	11              	;
 J-1862          	416         	0.3         	11              	;
 J-1865          	413         	1.2         	11              	;
 J-1866          	423         	6.3         	11              	;
 J-1892          	411         	1.1         	11              	;
 J-1902          	385         	3.3         	11              	;
 J-1903          	385         	0.8         	11              	;
 J-1908          	392         	0.5         	11              	;
 J-1909          	398         	0.4         	11              	;
 J-1910          	402         	0           	                	;
 J-1911          	399         	0.5         	11              	;
 J-1912          	402         	0.5         	11              	;
 J-1913          	386         	0.2         	11              	;
 J-1914          	387         	4.4         	11              	;
 J-1916          	427         	1           	11              	;
 J-1923          	395         	0.5         	11              	;
 J-1924          	395         	0           	                	;
 J-1928          	428         	1.1         	11              	;
 J-1929          	460         	1.1         	11              	;
 J-1930          	452         	0.3         	11              	;
 J-1931          	402         	0.2         	11              	;
 J-1936          	385         	0.8         	11              	;
 J-1938          	405         	2.9         	11              	;
 J-1939          	404         	0.1         	11              	;
 J-1940          	401         	3.5         	11              	;
 J-1941          	400         	0.1         	11              	;