[TITLE]


[JUNCTIONS]
;ID              	Elev        	Demand      	Pattern         
 I-Pump-1        	828.12      	0           	                	;
 I-Pump-2        	828.12      	0           	                	;
 I-Pump-3        	828.12      	0           	                	;
 I-Pump-4        	828.12      	0           	                	;
 I-Pump-5        	828.12      	0           	                	;
 J-1             	1012.4      	0           	                	;
 J-10            	888.6       	0           	                	;
 J-100           	924.1       	0.2306      	2               	;
 J-1000          	996.6       	0           	                	;
 J-1001          	996.6       	0.66335     	2               	;
 J-1002          	996.6       	0.39711     	2               	;
 J-1003          	1000.5      	0           	                	;
 J-1004          	1000.5      	0.89994     	2               	;
 J-1005          	1000.5      	0           	                	;
 J-1006          	997.3       	0.46569     	2               	;
 J-1007          	984.7       	0.38483     	2               	;
 J-1008          	1006.4      	0           	                	;
 J-1009          	1006.4      	0           	                	;
 J-101           	930.9       	1.85678     	2               	;
 J-1010          	1006.4      	0.77684     	2               	;
 J-1011          	986.1       	0.30546     	2               	;
 J-1012          	986.1       	0.6933      	2               	;
 J-1013          	986.1       	0           	                	;
 J-1014          	986.8       	0.56303     	2               	;
 J-1015          	986.8       	0           	                	;
 J-1016          	986.8       	0.54805     	2               	;
 J-1017          	986.8       	0           	                	;
 J-1018          	985.5       	0.60854     	2               	;
 J-1019          	985.3       	0           	                	;
 J-102           	938         	1.52135     	2               	;
 J-1020          	986.8       	0           	                	;
 J-1021          	978.5       	0           	                	;
 J-1022          	982.9       	0.18268     	2               	;
 J-1023          	997.1       	1.62917     	2               	;
 J-1024          	981.8       	0           	                	;
 J-1025          	932.9       	0           	                	;
 J-1026          	884.1       	0.26653     	2               	;
 J-1027          	924.4       	1.45368     	2               	;
 J-1028          	926.2       	0           	                	;
 J-1029          	990.6       	0.53007     	2               	;
 J-103           	948.6       	0           	                	;
 J-1030          	993.1       	0.02695     	2               	;
 J-1031          	998.8       	0.23599     	2               	;
 J-1032          	1022        	0           	                	;
 J-1033          	1022        	0.81638     	2               	;
 J-1034          	995.2       	0.15573     	2               	;
 J-1035          	995.6       	0           	                	;
 J-1036          	1014        	1.2129      	2               	;
 J-1037          	1013.7      	0           	                	;
 J-1038          	984         	0           	                	;
 J-1039          	984         	0.66185     	2               	;
 J-104           	922.9       	0           	                	;
 J-1040          	984         	0           	                	;
 J-1041          	982.2       	0.31145     	2               	;
 J-1042          	997.1       	0           	                	;
 J-1043          	997         	0.50612     	2               	;
 J-1044          	996.1       	0           	                	;
 J-1045          	996.1       	0           	                	;
 J-1046          	996.4       	0.81069     	2               	;
 J-1047          	987.3       	0.97002     	2               	;
 J-1048          	1007.1      	0.55553     	2               	;
 J-1049          	1010.2      	1.18774     	2               	;
 J-105           	943.5       	1.27967     	2               	;
 J-1050          	992.2       	0           	                	;
 J-1051          	995         	0.15722     	2               	;
 J-1052          	992.2       	1.52435     	2               	;
 J-1053          	995         	0.58248     	2               	;
 J-1054          	985.5       	0           	                	;
 J-1055          	995.8       	0           	                	;
 J-1056          	997         	0           	                	;
 J-1057          	997         	0.04492     	2               	;
 J-1058          	995.2       	0.03444     	2               	;
 J-1059          	998.4       	0           	                	;
 J-106           	957.2       	0           	                	;
 J-1060          	997.8       	0.93917     	2               	;
 J-1061          	993.2       	0           	                	;
 J-1062          	994.3       	0           	                	;
 J-1063          	994.3       	0.41328     	2               	;
 J-1064          	997.1       	0.17999     	2               	;
 J-1065          	996.6       	0           	                	;
 J-1066          	996.6       	0.06739     	2               	;
 J-1067          	996.6       	0.83105     	2               	;
 J-1068          	1023.1      	0.59597     	2               	;
 J-1069          	1023.1      	0.60644     	2               	;
 J-107           	929.7       	1.76063     	2               	;
 J-1070          	1025.6      	0           	                	;
 J-1071          	1032.7      	0.95983     	2               	;
 J-1072          	1021.4      	1.18324     	2               	;
 J-1073          	1021.4      	0           	                	;
 J-1074          	1021.4      	0.27132     	2               	;
 J-1075          	993.1       	1.05266     	2               	;
 J-1076          	989.9       	0.25606     	2               	;
 J-1077          	996         	0.13327     	2               	;
 J-1078          	990.1       	0           	                	;
 J-1079          	990.1       	0           	                	;
 J-108           	939.7       	1.69027     	2               	;
 J-1080          	990.1       	0.43275     	2               	;
 J-1081          	988.3       	0           	                	;
 J-1082          	990.6       	0           	                	;
 J-1083          	979.1       	0.09882     	2               	;
 J-1084          	988.9       	0.57949     	2               	;
 J-1085          	980         	0.81608     	2               	;
 J-1086          	1013.9      	0           	                	;
 J-1087          	998         	0           	                	;
 J-1088          	998         	0           	                	;
 J-1089          	998         	0           	                	;
 J-109           	936.6       	0           	                	;
 J-1090          	997         	0.18118     	2               	;
 J-1091          	996         	0.22312     	2               	;
 J-1092          	1007.4      	0.57949     	2               	;
 J-1093          	1007.4      	0           	                	;
 J-1094          	1007.4      	0           	                	;
 J-1095          	1031.6      	0           	                	;
 J-1096          	1031.6      	0           	                	;
 J-1097          	1031.6      	0.26054     	2               	;
 J-1098          	1020.8      	0.12878     	2               	;
 J-1099          	1032.4      	0           	                	;
 J-11            	902.8       	0           	                	;
 J-110           	927.7       	0           	                	;
 J-1100          	1032.4      	0           	                	;
 J-1101          	1034.3      	0.2321      	2               	;
 J-1102          	1031.1      	0           	                	;
 J-1103          	1031.1      	1.58065     	2               	;
 J-1104          	1023.2      	0           	                	;
 J-1105          	1030.7      	0.70707     	2               	;
 J-1106          	1034.3      	0           	                	;
 J-1107          	1034.3      	0.53457     	2               	;
 J-1108          	1034.3      	0.94516     	2               	;
 J-1109          	1031.2      	0.54655     	2               	;
 J-111           	917.5       	0           	                	;
 J-1110          	1031.2      	0           	                	;
 J-1111          	1031.2      	0.67234     	2               	;
 J-1112          	1003.7      	0.67383     	2               	;
 J-1113          	1002.8      	0.05989     	2               	;
 J-1114          	1020.9      	0           	                	;
 J-1115          	1020.9      	0.70078     	2               	;
 J-1116          	1020.9      	0           	                	;
 J-1117          	1008.3      	0.85501     	2               	;
 J-1118          	1007.8      	0.15873     	2               	;
 J-1119          	1023.6      	0.92989     	2               	;
 J-112           	953.5       	1.34046     	2               	;
 J-1120          	1023.6      	0           	                	;
 J-1121          	1023.2      	0           	                	;
 J-1122          	1023.6      	0           	                	;
 J-1123          	1019.5      	0.2845      	2               	;
 J-1124          	1033.4      	0.59446     	2               	;
 J-1125          	1033.4      	0           	                	;
 J-1126          	1034.5      	13.41846    	2               	;
 J-1127          	1033.4      	0           	                	;
 J-1128          	1030.3      	0           	                	;
 J-1129          	1020.9      	0.3474      	2               	;
 J-113           	947.5       	0           	                	;
 J-1130          	1030.1      	0.3989      	2               	;
 J-1131          	1030.3      	0.39831     	2               	;
 J-1132          	1034.2      	0.91491     	2               	;
 J-1133          	1032.4      	0           	                	;
 J-1134          	1030.4      	0           	                	;
 J-1135          	1030.4      	0.65256     	2               	;
 J-1136          	1030.4      	0.14525     	2               	;
 J-1137          	1027.6      	0.20664     	2               	;
 J-1138          	1023.2      	0.65286     	2               	;
 J-1139          	1002.9      	0.06618     	2               	;
 J-114           	939.5       	0           	                	;
 J-1140          	986.9       	0.13477     	2               	;
 J-1141          	986.9       	0           	                	;
 J-1142          	986.9       	0           	                	;
 J-1143          	986.9       	0           	                	;
 J-1144          	1001.3      	0           	                	;
 J-1145          	998.6       	0.68641     	2               	;
 J-1146          	1028        	0           	                	;
 J-1147          	1030.7      	0.29798     	2               	;
 J-1148          	1024.4      	0.09134     	2               	;
 J-1149          	1024.4      	0           	                	;
 J-115           	940         	0           	                	;
 J-1151          	1004        	1.04069     	2               	;
 J-1152          	1004        	0           	                	;
 J-1154          	990         	0.26205     	2               	;
 J-1155          	990         	0           	                	;
 J-1156          	990         	0.65286     	2               	;
 J-1157          	986.7       	0.41029     	2               	;
 J-1158          	987.4       	0.06439     	2               	;
 J-1159          	1000.1      	0.61842     	2               	;
 J-116           	921.6       	0.08236     	2               	;
 J-1160          	949.7       	0           	                	;
 J-1161          	952.3       	0.14944     	2               	;
 J-1162          	934.3       	0.85352     	2               	;
 J-1163          	934.3       	0           	                	;
 J-1164          	930         	0.00898     	2               	;
 J-1165          	937.9       	0           	                	;
 J-1166          	939.8       	0.03294     	2               	;
 J-1167          	854.4       	0           	                	;
 J-1167_Domestic_Service	934.3       	0           	                	;
 J-1168          	930         	0           	                	;
 J-1169          	975.5       	0.22012     	2               	;
 J-117           	920.9       	0.56482     	2               	;
 J-1170          	975.5       	0           	                	;
 J-1171          	966.7       	0.68281     	2               	;
 J-1172          	968.9       	0.39681     	2               	;
 J-1173          	967.6       	0.54655     	2               	;
 J-1174          	971         	1.10059     	2               	;
 J-1175          	971.9       	0.03145     	2               	;
 J-1176          	969.8       	0.15123     	2               	;
 J-1177          	971.9       	0           	                	;
 J-1178          	971.9       	0.1737      	2               	;
 J-1179          	978.6       	0.68071     	2               	;
 J-118           	920.1       	0.10662     	2               	;
 J-1180          	971.9       	0.20514     	2               	;
 J-1181          	978.6       	0           	                	;
 J-1182          	966.7       	0.07038     	2               	;
 J-1183          	966.7       	0           	                	;
 J-1184          	980.7       	0.02247     	2               	;
 J-1185          	970.3       	0.10931     	2               	;
 J-1186          	970.3       	0           	                	;
 J-1187          	970.3       	0.92719     	2               	;
 J-1188          	980.7       	0           	                	;
 J-1189          	980.7       	0           	                	;
 J-119           	930.2       	0.13926     	2               	;
 J-1190          	980.7       	1.14101     	2               	;
 J-1191          	965.7       	0           	                	;
 J-1192          	965.7       	0           	                	;
 J-1193          	965.7       	1.25482     	2               	;
 J-1194          	962.7       	0.21322     	2               	;
 J-1195          	968.4       	0.49534     	2               	;
 J-1196          	968.4       	0           	                	;
 J-1197          	969.8       	0.2845      	2               	;
 J-1198          	987.6       	0.21113     	2               	;
 J-1199          	987.6       	0.17071     	2               	;
 J-12            	879.5       	0           	                	;
 J-120           	980.5       	0           	                	;
 J-1200          	987.6       	0.94036     	2               	;
 J-1201          	969.2       	0           	                	;
 J-1202          	969.2       	0.31145     	2               	;
 J-1203          	968         	0.16022     	2               	;
 J-1204          	980.1       	0.37735     	2               	;
 J-1205          	980.1       	0           	                	;
 J-1206          	980.1       	0.92539     	2               	;
 J-1207          	981.6       	0.48515     	2               	;
 J-1208          	924.9       	0           	                	;
 J-1209          	928.1       	0           	                	;
 J-121           	938.1       	0.94665     	2               	;
 J-1210          	928.1       	0           	                	;
 J-1211          	948.2       	2.54588     	2               	;
 J-1212          	958.7       	0           	                	;
 J-1213          	961         	0           	                	;
 J-1214          	927.9       	0           	                	;
 J-1215          	924.9       	0           	                	;
 J-1216          	924         	0           	                	;
 J-1217          	924         	0           	                	;
 J-1218          	940.2       	0           	                	;
 J-1219          	940.2       	0           	                	;
 J-122           	921.5       	0           	                	;
 J-1220          	910         	0           	                	;
 J-1221          	910         	0           	                	;
 J-1222          	961.6       	1.27248     	2               	;
 J-1223          	962.6       	0.25516     	2               	;
 J-1224          	957.8       	1.27548     	2               	;
 J-1225          	919.2       	0           	                	;
 J-1226          	919.2       	0           	                	;
 J-1227          	920.2       	0.1168      	2               	;
 J-1228          	920.2       	0           	                	;
 J-1229          	920.2       	0           	                	;
 J-123           	927.7       	0.6858      	2               	;
 J-1230          	910         	0           	                	;
 J-1231          	915.6       	0           	                	;
 J-1232          	940.2       	0           	                	;
 J-1233          	803.3       	3.32122     	2               	;
 J-1234          	788.8       	0           	                	;
 J-1235          	826.3       	0           	                	;
 J-1236          	826.3       	0           	                	;
 J-1237          	826.3       	0           	                	;
 J-1238          	826.3       	0.33512     	2               	;
 J-1239          	900.2       	0           	                	;
 J-124           	957.5       	0           	                	;
 J-1240          	900.2       	0           	                	;
 J-1241          	900.2       	0.62441     	2               	;
 J-1242          	900.2       	0           	                	;
 J-1243          	902.7       	0           	                	;
 J-1244          	902.7       	0           	                	;
 J-1245          	902.7       	0.20365     	2               	;
 J-1246          	895.4       	0.858       	2               	;
 J-1247          	895.7       	0           	                	;
 J-1248          	895         	0.7484      	2               	;
 J-1249          	895         	0.27971     	2               	;
 J-125           	930.5       	0           	                	;
 J-1250          	895         	0           	                	;
 J-1251          	897         	0           	                	;
 J-1252          	894.8       	0.81279     	2               	;
 J-1253          	896         	0.36806     	2               	;
 J-1254          	879.5       	0.31536     	2               	;
 J-1255          	879.9       	0           	                	;
 J-1256          	882.6       	1.2623      	2               	;
 J-1257          	879.5       	0.87059     	2               	;
 J-1258          	885.8       	0           	                	;
 J-1259          	885.8       	0           	                	;
 J-126           	929.7       	0           	                	;
 J-1260          	882.3       	0           	                	;
 J-1261          	885.8       	0           	                	;
 J-1262          	885.5       	0.07996     	2               	;
 J-1263          	895.1       	0           	                	;
 J-1264          	894         	0.10931     	2               	;
 J-1265          	894.9       	0.02726     	2               	;
 J-1266          	895         	1.42971     	2               	;
 J-1267          	896.1       	0           	                	;
 J-1268          	896.1       	0           	                	;
 J-1269          	898.6       	0.68641     	2               	;
 J-127           	949.5       	0           	                	;
 J-1270          	898.3       	0.44443     	2               	;
 J-1271          	899.8       	0           	                	;
 J-1272          	887.9       	0.16052     	2               	;
 J-1273          	892.9       	0           	                	;
 J-1274          	894.6       	0.25665     	2               	;
 J-1275          	896.5       	0           	                	;
 J-1276          	894.1       	0           	                	;
 J-1277          	890.2       	0.18927     	2               	;
 J-1278          	888.3       	1.07813     	2               	;
 J-1279          	902         	0.62112     	2               	;
 J-128           	940.4       	0.53757     	2               	;
 J-1280          	902         	0           	                	;
 J-1281          	897.2       	0.29829     	2               	;
 J-1282          	895.8       	0.16232     	2               	;
 J-1283          	902         	0           	                	;
 J-1284          	903.1       	1.02512     	2               	;
 J-1285          	885.8       	0           	                	;
 J-1286          	887.2       	0.82956     	2               	;
 J-1287          	900.4       	0.31864     	2               	;
 J-1288          	900.4       	0.66753     	2               	;
 J-1289          	885.9       	0.99577     	2               	;
 J-129           	924.3       	0           	                	;
 J-1290          	884.7       	0           	                	;
 J-1291          	899.8       	0           	                	;
 J-1292          	885.8       	0           	                	;
 J-1293          	885.6       	0.1198      	2               	;
 J-1294          	885.3       	0.98947     	2               	;
 J-1295          	885.9       	0           	                	;
 J-1296          	879.2       	2.97143     	2               	;
 J-1297          	879.6       	0           	                	;
 J-1298          	885.1       	0           	                	;
 J-1299          	865.6       	0.30966     	2               	;
 J-13            	1015.2      	2.56654     	2               	;
 J-130           	923.5       	0           	                	;
 J-1300          	984.2       	0           	                	;
 J-1301          	984.2       	0.39531     	2               	;
 J-1302          	985.3       	0.18568     	2               	;
 J-1303          	928.9       	0           	                	;
 J-1304          	928.9       	0.41477     	2               	;
 J-1305          	928.9       	0.45641     	2               	;
 J-1306          	928.9       	0.43424     	2               	;
 J-1307          	952.1       	1.39856     	2               	;
 J-1308          	952.1       	0.40939     	2               	;
 J-1309          	865.9       	0           	                	;
 J-131           	922.3       	0           	                	;
 J-1310          	863.5       	1.02302     	2               	;
 J-1311          	913         	0           	                	;
 J-1312          	913         	0.50193     	2               	;
 J-1313          	913         	0.32344     	2               	;
 J-1314          	913         	0           	                	;
 J-1315          	916.7       	0           	                	;
 J-1316          	961.3       	2.66835     	2               	;
 J-1317          	947         	0           	                	;
 J-1318          	947         	0           	                	;
 J-1319          	947         	0           	                	;
 J-132           	923.5       	0           	                	;
 J-1320          	947         	0           	                	;
 J-1321          	947         	0           	                	;
 J-1322          	947         	0           	                	;
 J-1323          	947         	0           	                	;
 J-1324          	947         	0.04881     	2               	;
 J-1325          	947         	0.4582      	2               	;
 J-1326          	947         	0           	                	;
 J-1327          	945.7       	0           	                	;
 J-1328          	945.7       	0.45671     	2               	;
 J-1329          	933.2       	0           	                	;
 J-133           	936.6       	0           	                	;
 J-1330          	933.2       	0           	                	;
 J-1331          	933.2       	0           	                	;
 J-1332          	933.2       	0           	                	;
 J-1333          	933.2       	0.47348     	2               	;
 J-1334          	974.9       	0           	                	;
 J-1335          	952.1       	0.00569     	2               	;
 J-1336          	952.1       	0           	                	;
 J-1337          	972.1       	0.38303     	2               	;
 J-1338          	959.9       	0           	                	;
 J-1339          	959.1       	1.80585     	2               	;
 J-134           	943.1       	0           	                	;
 J-1340          	959.2       	0.55044     	2               	;
 J-1341          	925.2       	0           	                	;
 J-1342          	926         	0.15423     	2               	;
 J-1343          	937.8       	0.1737      	2               	;
 J-1344          	937.8       	0.20964     	2               	;
 J-1345          	928.7       	0           	                	;
 J-1346          	930.4       	0.72355     	2               	;
 J-1347          	947.5       	0.88197     	2               	;
 J-1348          	947.5       	0           	                	;
 J-1349          	928.7       	0           	                	;
 J-135           	943.7       	0.35339     	2               	;
 J-1350          	928.3       	0.94007     	2               	;
 J-1351          	933.5       	0.14404     	2               	;
 J-1352          	933.5       	0.27971     	2               	;
 J-1353          	925.6       	0           	                	;
 J-1354          	930.1       	0.39442     	2               	;
 J-1355          	930.1       	0           	                	;
 J-1356          	921         	0.97391     	2               	;
 J-1357          	921.3       	1.18294     	2               	;
 J-1358          	920.1       	0           	                	;
 J-1359          	920.1       	0           	                	;
 J-136           	917.5       	0           	                	;
 J-1360          	920.1       	0.14854     	2               	;
 J-1361          	919.8       	0.89275     	2               	;
 J-1362          	919.7       	0           	                	;
 J-1363          	919.7       	0.96702     	2               	;
 J-1364          	926.9       	0.96882     	2               	;
 J-1365          	928.5       	0           	                	;
 J-1366          	922.6       	0           	                	;
 J-1367          	922.6       	1.2054      	2               	;
 J-1368          	922.4       	0           	                	;
 J-1369          	922.3       	0.93887     	2               	;
 J-137           	935.8       	0           	                	;
 J-1370          	931.7       	0.61393     	2               	;
 J-1371          	930.4       	0           	                	;
 J-1372          	916.7       	0           	                	;
 J-1373          	907.7       	0.6286      	2               	;
 J-1374          	928.4       	0.89544     	2               	;
 J-1375          	928.4       	0           	                	;
 J-1376          	928.4       	1.97507     	2               	;
 J-1377          	930.4       	0           	                	;
 J-1378          	930.4       	0           	                	;
 J-1379          	929.3       	0           	                	;
 J-138           	939.9       	0           	                	;
 J-1380          	1001.6      	1.02302     	2               	;
 J-1381          	949.5       	0.71276     	2               	;
 J-1382          	1002.8      	0           	                	;
 J-1383          	1011.6      	0           	                	;
 J-1384          	1005.2      	0           	                	;
 J-1385          	1005.2      	0.50163     	2               	;
 J-1386          	998         	0           	                	;
 J-1387          	996.8       	0           	                	;
 J-1388          	998         	0           	                	;
 J-1389          	997.2       	0           	                	;
 J-139           	934.7       	0           	                	;
 J-1390          	996.8       	0           	                	;
 J-1391          	1026.4      	0           	                	;
 J-1392          	1031.5      	0           	                	;
 J-1393          	995.8       	0.78882     	2               	;
 J-1394          	1029.9      	0           	                	;
 J-1395          	1006.6      	0.37645     	2               	;
 J-1396          	967.6       	0           	                	;
 J-1397          	936.1       	0           	                	;
 J-1398          	936.1       	0           	                	;
 J-1399          	936.1       	0           	                	;
 J-14            	1032.4      	0           	                	;
 J-140           	936.2       	0           	                	;
 J-1400          	936.1       	0.33392     	2               	;
 J-1401          	934.8       	0           	                	;
 J-1402          	931.9       	0           	                	;
 J-1403          	1011.6      	0           	                	;
 J-1404          	1011.6      	0           	                	;
 J-1405          	1017.3      	1.48391     	2               	;
 J-1406          	1017.3      	0           	                	;
 J-1407          	918.1       	0.66484     	2               	;
 J-1408          	989.8       	1.58874     	2               	;
 J-1409          	578.6       	0           	                	;
 J-141           	940.7       	0           	                	;
 J-1410          	572.6       	0.20006     	2               	;
 J-1411          	943.9       	0           	                	;
 J-1412          	943.9       	0           	                	;
 J-1413          	941.8       	0           	                	;
 J-1414          	941.8       	0           	                	;