[TITLE]
ATSDR Field Measured Data 8/14/98 through 8/16/98 along with UWTR data
Epanet Street Level Network - Calibrated to Aug98 - Transient Run FinAug.inp

[JUNCTIONS]
;ID              	Elev        	Demand      	Pattern         
 1               	54.268      	0.00000000  	1               	;
 2               	53.635      	0.50361589  	1               	;
 3               	49.213      	0.56589861  	1               	;
 4               	49.213      	0.65307939  	1               	;
 5               	52.487      	0.17707619  	1               	;
 6               	49.420      	0.47435740  	1               	;
 7               	52.493      	0.22814110  	1               	;
 8               	52.493      	0.07745270  	1               	;
 9               	52.493      	0.20923838  	1               	;
 10              	52.493      	0.10954816  	1               	;
 11              	52.493      	0.15231361  	1               	;
 12              	52.493      	0.06678272  	1               	;
 13              	49.213      	0.45996241  	1               	;
 14              	49.213      	0.27860656  	1               	;
 15              	49.213      	0.13930328  	1               	;
 16              	52.493      	0.76200713  	1               	;
 17              	51.220      	0.17944906  	1               	;
 18              	49.213      	0.10798447  	1               	;
 19              	49.213      	0.21596894  	1               	;
 20              	49.213      	0.25527379  	1               	;
 21              	49.213      	0.34030459  	1               	;
 22              	49.213      	0.33109853  	1               	;
 23              	49.213      	0.25947228  	1               	;
 24              	49.213      	0.25880710  	1               	;
 25              	49.213      	0.59677731  	1               	;
 26              	49.213      	0.17275982  	1               	;
 27              	49.213      	0.70800628  	1               	;
 28              	49.213      	0.46855844  	1               	;
 30              	49.213      	0.67687108  	1               	;
 31              	49.213      	0.07843171  	1               	;
 32              	49.213      	1.01429155  	1               	;
 33              	49.213      	0.34392371  	1               	;
 34              	49.213      	0.97238724  	1               	;
 35              	49.213      	0.42329452  	1               	;
 36              	49.213      	0.53436579  	1               	;
 37              	45.932      	0.15643832  	1               	;
 38              	45.932      	0.26274888  	1               	;
 39              	48.297      	0.27072598  	1               	;
 40              	49.213      	1.00826372  	1               	;
 41              	49.213      	0.31222325  	1               	;
 42              	49.213      	0.66690656  	1               	;
 43              	49.213      	0.00000000  	1               	;
 44              	49.213      	0.28613879  	1               	;
 45              	49.213      	0.25347804  	1               	;
 46              	47.707      	0.49226982  	1               	;
 47              	48.619      	0.24171015  	1               	;
 48              	45.932      	0.48935144  	1               	;
 49              	49.019      	0.44886964  	1               	;
 50              	50.233      	0.07103745  	1               	;
 51              	49.213      	0.73524226  	1               	;
 52              	51.512      	0.19491307  	1               	;
 53              	52.493      	0.16249701  	1               	;
 54              	52.493      	0.58140497  	1               	;
 55              	52.493      	0.41024824  	1               	;
 56              	52.493      	0.27882432  	1               	;
 57              	42.651      	0.38387992  	1               	;
 58              	42.651      	0.78264078  	1               	;
 59              	52.493      	0.33771776  	1               	;
 60              	52.493      	0.20520461  	1               	;
 61              	49.524      	0.27429218  	1               	;
 62              	51.411      	0.11805019  	1               	;
 63              	49.213      	1.27529209  	1               	;
 64              	49.213      	0.96404884  	1               	;
 65              	49.213      	0.41728189  	1               	;
 66              	49.213      	0.20625627  	1               	;
 67              	49.213      	0.16810356  	1               	;
 68              	45.932      	0.46406713  	1               	;
 69              	45.932      	0.38845371  	1               	;
 70              	45.932      	0.12239864  	1               	;
 71              	49.213      	0.32069640  	1               	;
 72              	45.932      	0.29917973  	1               	;
 73              	45.932      	0.39357198  	1               	;
 74              	49.167      	0.17687120  	1               	;
 75              	48.845      	0.03304600  	1               	;
 76              	45.932      	0.23489216  	1               	;
 77              	45.932      	0.25252827  	1               	;
 78              	45.932      	0.38265790  	1               	;
 79              	45.932      	0.12345688  	1               	;
 80              	44.754      	0.14422369  	1               	;
 81              	43.698      	0.12507990  	1               	;
 82              	45.932      	0.20595213  	1               	;
 83              	45.932      	0.16336748  	1               	;
 84              	49.213      	0.31166025  	1               	;
 85              	49.213      	0.24440899  	1               	;
 86              	47.552      	0.16592179  	1               	;
 87              	45.932      	0.10382085  	1               	;
 88              	45.932      	0.14474253  	1               	;
 89              	46.634      	0.06289916  	1               	;
 90              	45.932      	0.15288433  	1               	;
 91              	45.942      	0.05810989  	1               	;
 92              	47.238      	0.00000000  	1               	;
 93              	45.932      	0.26076006  	1               	;
 94              	47.290      	0.06097773  	1               	;
 96              	47.113      	0.12195546  	1               	;
 97              	45.932      	0.19753101  	1               	;
 98              	45.932      	0.29207928  	1               	;
 99              	45.932      	0.25470962  	1               	;
 100             	45.932      	0.28301069  	1               	;
 101             	45.932      	0.24882945  	1               	;
 102             	45.932      	0.08061948  	1               	;
 103             	45.932      	0.63895314  	1               	;
 104             	45.932      	0.46341024  	1               	;
 105             	45.932      	0.11966093  	1               	;
 106             	45.932      	0.21808959  	1               	;
 107             	45.932      	0.42165187  	1               	;
 108             	45.932      	1.29545975  	1               	;
 109             	46.680      	0.24208456  	1               	;
 110             	45.938      	0.05755113  	1               	;
 111             	42.369      	0.39467066  	1               	;
 112             	42.651      	0.35970646  	1               	;
 113             	42.631      	0.37208374  	1               	;
 114             	42.615      	0.28054510  	1               	;
 115             	41.667      	0.32994052  	1               	;
 116             	40.328      	0.24575676  	1               	;
 117             	45.932      	0.28130531  	1               	;
 118             	44.334      	0.22511781  	1               	;
 119             	49.213      	0.26766341  	1               	;
 120             	49.213      	0.50509345  	1               	;
 121             	45.932      	0.41238060  	1               	;
 122             	45.932      	0.19859527  	1               	;
 123             	45.932      	0.24350804  	1               	;
 124             	42.651      	1.14760606  	1               	;
 125             	45.932      	1.34812764  	1               	;
 127             	45.932      	0.15883543  	1               	;
 128             	45.932      	0.11739045  	1               	;
 129             	45.932      	0.36002042  	1               	;
 130             	45.932      	0.14447644  	1               	;
 131             	45.932      	0.07223822  	1               	;
 132             	45.932      	0.35791842  	1               	;
 133             	45.932      	0.06010542  	1               	;
 134             	45.932      	0.01652300  	1               	;
 135             	45.932      	0.12021083  	1               	;
 136             	45.932      	0.35632209  	1               	;
 137             	45.932      	0.83955024  	1               	;
 138             	45.932      	0.03304600  	1               	;
 139             	45.932      	0.16874640  	1               	;
 140             	45.932      	0.14428420  	1               	;
 142             	48.668      	0.09368698  	1               	;
 143             	48.074      	0.12672482  	1               	;
 144             	49.213      	0.15976265  	1               	;
 145             	45.932      	0.20413952  	1               	;
 146             	45.932      	0.03418411  	1               	;
 147             	45.932      	0.21546333  	1               	;
 148             	45.932      	0.39788065  	1               	;
 149             	45.932      	0.02203067  	1               	;
 150             	45.932      	0.23826646  	1               	;
 151             	45.932      	0.00000000  	1               	;
 152             	45.932      	0.00000000  	1               	;
 153             	45.932      	0.12349680  	1               	;
 154             	45.932      	0.04406134  	1               	;
 155             	45.932      	0.12963811  	1               	;
 156             	45.932      	0.06010542  	1               	;
 157             	45.932      	0.10146613  	1               	;
 158             	45.932      	0.14282684  	1               	;
 159             	45.932      	0.21603238  	1               	;
 160             	45.932      	0.00909964  	1               	;
 161             	49.213      	0.47370877  	1               	;
 162             	49.213      	0.09076966  	1               	;
 163             	49.213      	0.37409493  	1               	;
 164             	45.932      	0.08417857  	1               	;
 165             	45.932      	0.15015785  	1               	;
 166             	45.932      	0.17207528  	1               	;
 167             	45.932      	0.10072182  	1               	;
 168             	45.932      	0.03346612  	1               	;
 169             	45.932      	0.09921046  	1               	;
 170             	45.932      	0.03453916  	1               	;
 171             	45.932      	0.10491331  	1               	;
 172             	45.932      	0.05087903  	1               	;
 173             	49.068      	0.19885289  	1               	;
 174             	44.659      	0.30693613  	1               	;
 175             	43.461      	0.41974238  	1               	;
 176             	45.069      	0.14805435  	1               	;
 177             	45.932      	0.00000000  	1               	;
 178             	45.932      	0.14533104  	1               	;
 179             	45.932      	0.00000000  	1               	;
 180             	45.932      	0.23206700  	1               	;
 181             	45.932      	0.15701981  	1               	;
 182             	45.932      	0.07215306  	1               	;
 183             	45.932      	0.09172870  	1               	;
 184             	45.932      	0.06205894  	1               	;
 185             	45.932      	0.05804603  	1               	;
 186             	45.932      	0.24948655  	1               	;
 187             	45.932      	0.19542759  	1               	;
 188             	42.651      	0.19224714  	1               	;
 189             	42.651      	0.04382187  	1               	;
 190             	42.651      	0.24799398  	1               	;
 191             	42.651      	0.45718554  	1               	;
 192             	40.676      	0.12226489  	1               	;
 193             	42.195      	0.50602685  	1               	;
 194             	42.651      	0.38449428  	1               	;
 195             	45.932      	0.46413399  	1               	;
 196             	42.651      	0.27437433  	1               	;
 197             	42.651      	0.28798312  	1               	;
 198             	45.932      	0.21302866  	1               	;
 199             	45.932      	0.11609205  	1               	;
 200             	45.932      	0.28707981  	1               	;
 201             	45.932      	0.45806757  	1               	;
 202             	43.553      	0.11443897  	1               	;
 203             	45.597      	0.22887795  	1               	;
 204             	42.651      	0.43674035  	1               	;
 205             	42.651      	0.43691642  	1               	;
 206             	42.651      	0.55232227  	1               	;
 207             	42.651      	0.42605732  	1               	;
 208             	42.651      	0.14481340  	1               	;
 209             	42.651      	0.36906697  	1               	;
 210             	45.541      	0.10604254  	1               	;
 211             	43.976      	0.08833553  	1               	;
 212             	42.651      	0.16282207  	1               	;
 213             	43.150      	0.12374955  	1               	;
 214             	42.651      	0.09812697  	1               	;
 215             	42.844      	0.35241972  	1               	;
 216             	43.501      	0.14864490  	1               	;
 217             	43.228      	0.07432245  	1               	;
 218             	42.858      	0.49763316  	1               	;
 220             	49.209      	0.12296220  	1               	;
 221             	52.493      	0.56581702  	1               	;
 222             	52.493      	0.58589456  	1               	;
 223             	49.213      	0.31879955  	1               	;
 224             	50.141      	0.41295685  	1               	;
 225             	49.213      	0.09850919  	1               	;
 226             	49.213      	0.18916740  	1               	;
 227             	49.213      	0.03811547  	1               	;
 228             	47.753      	0.43617918  	1               	;
 229             	47.051      	0.14624978  	1               	;
 230             	49.213      	0.29249955  	1               	;
 231             	49.213      	0.38800675  	1               	;
 232             	49.213      	0.36055175  	1               	;
 233             	45.932      	0.10033788  	1               	;
 234             	46.329      	0.37895008  	1               	;
 235             	46.936      	0.39626358  	1               	;
 236             	47.064      	0.18027587  	1               	;
 237             	51.188      	0.35519428  	1               	;
 238             	50.413      	0.13496488  	1               	;
 239             	45.932      	0.80778743  	1               	;
 240             	49.213      	0.38968222  	1               	;
 241             	49.213      	0.42750413  	1               	;
 242             	49.213      	0.32754135  	1               	;
 243             	52.493      	0.13713453  	1               	;
 244             	52.493      	0.06856727  	1               	;
 245             	52.493      	0.11568029  	1               	;
 246             	52.493      	0.29666940  	1               	;
 247             	52.493      	0.04561912  	1               	;
 248             	52.493      	0.20121499  	1               	;
 249             	52.493      	0.07488863  	1               	;
 250             	52.493      	0.26809615  	1               	;
 251             	52.493      	1.00685401  	1               	;
 252             	52.493      	0.19491307  	1               	;
 253             	52.493      	0.43181649  	1               	;
 254             	52.493      	0.12594406  	1               	;
 255             	52.493      	0.37095536  	1               	;
 256             	50.479      	0.46751658  	1               	;
 257             	51.043      	0.36673355  	1               	;
 258             	49.396      	0.99171493  	1               	;
 259             	49.980      	0.17274682  	1               	;
 260             	49.213      	0.68776426  	1               	;
 261             	49.327      	0.21059625  	1               	;
 262             	45.932      	0.20297487  	1               	;
 263             	42.556      	0.38110008  	1               	;
 264             	42.923      	0.69107979  	1               	;
 265             	43.957      	0.66460014  	1               	;
 267             	47.710      	0.52851974  	1               	;
 268             	52.493      	0.09473752  	1               	;
 269             	49.213      	0.48982611  	1               	;
 270             	49.213      	0.37809353  	1               	;
 271             	51.007      	0.27067873  	1               	;
 272             	52.493      	0.33175641  	1               	;
 273             	52.493      	0.12728913  	1               	;
 274             	50.167      	0.13481422  	1               	;
 275             	50.482      	0.14233931  	1               	;
 276             	50.689      	0.05273558  	1               	;
 277             	45.932      	0.00000000  	1               	;
 278             	45.932      	0.00000000  	1               	;
 279             	47.641      	0.00000000  	1               	;
 280             	45.932      	0.00000000  	1               	;
 281             	45.932      	0.22917939  	1               	;
 282             	45.932      	0.15959376  	1               	;
 283             	45.932      	0.45835878  	1               	;
 284             	45.932      	0.25472640  	1               	;
 285             	48.812      	0.50945280  	1               	;
 286             	49.213      	0.13426653  	1               	;
 287             	49.213      	0.08850835  	1               	;
 288             	49.213      	0.56696192  	1               	;
 289             	49.213      	0.16611225  	1               	;
 290             	49.213      	0.04425417  	1               	;
 291             	49.213      	0.18178897  	1               	;
 292             	49.213      	0.03896117  	1               	;
 293             	49.236      	0.12728913  	1               	;
 294             	49.213      	0.03084808  	1               	;
 295             	49.213      	0.06169616  	1               	;
 296             	49.213      	0.19746568  	1               	;
 297             	49.213      	0.09873284  	1               	;
 298             	47.087      	0.31954546  	1               	;
 299             	41.719      	0.38045423  	1               	;
 300             	41.499      	0.00000000  	1               	;
 301             	40.479      	0.56398427  	1               	;
 302             	38.661      	0.00000000  	1               	;
 303             	49.213      	0.60874032  	1               	;
 304             	43.169      	0.32320043  	1               	;
 305             	44.974      	0.64361555  	1               	;
 306             	49.213      	0.28210090  	1               	;
 307             	49.213      	0.37521650  	1               	;
 308             	49.121      	0.19803051  	1               	;
 309             	48.576      	0.07793644  	1               	;
 310             	45.932      	0.08485942  	1               	;
 311             	45.932      	0.09178240  	1               	;
 312             	45.404      	0.05840397  	1               	;
 313             	47.526      	0.00000000  	1               	;
 314             	44.442      	0.61111692  	1               	;
 315             	42.651      	0.56967166  	1               	;
 316             	44.685      	0.13784290  	1               	;
 317             	44.403      	0.27568581  	1               	;
 318             	42.651      	0.53518678  	1               	;
 319             	42.651      	0.17812193  	1               	;
 320             	42.651      	0.09472990  	1               	;
 321             	40.764      	0.67871945  	1               	;
 322             	39.370      	0.54853813  	1               	;
 323             	45.568      	0.54716240  	1               	;
 324             	45.390      	0.41238811  	1               	;
 325             	45.932      	0.56017412  	1               	;
 326             	45.604      	0.09216462  	1               	;
 327             	45.932      	0.56707118  	1               	;
 328             	41.617      	0.01340753  	1               	;
 329             	39.911      	0.24529618  	1               	;
 330             	39.370      	0.33836715  	1               	;
 331             	45.358      	0.58977207  	1               	;
 332             	45.039      	0.65155632  	1               	;
 333             	44.820      	0.33079152  	1               	;
 334             	49.262      	0.82849541  	1               	;
 335             	47.156      	0.38254905  	1               	;
 336             	45.974      	0.66476455  	1               	;
 337             	45.932      	0.46111243  	1               	;
 338             	49.213      	0.54426480  	1               	;
 339             	46.047      	0.54858257  	1               	;
 340             	49.213      	0.64074383  	1               	;
 341             	52.208      	0.79407740  	1               	;
 342             	55.770      	0.31983410  	1               	;
 343             	55.770      	1.56968554  	1               	;
 344             	55.636      	0.56927248  	1               	;
 345             	52.493      	0.66221355  	1               	;
 346             	53.520      	0.62780624  	1               	;
 347             	52.493      	0.62133389  	1               	;
 348             	52.493      	0.71844737  	1               	;
 349             	52.493      	0.71926579  	1               	;
 350             	50.335      	0.42819012  	1               	;
 351             	52.493      	0.17976708  	1               	;
 352             	52.493      	0.60624853  	1               	;
 353             	52.493      	0.73117482  	1               	;
 354             	53.825      	0.97263580  	1               	;
 355             	52.493      	0.45109246  	1               	;
 356             	52.493      	0.25840221  	1               	;
 357             	52.493      	0.63023742  	1               	;
 358             	37.264      	0.55343914  	1               	;
 359             	44.262      	0.27868459  	1               	;
 360             	43.448      	0.22657765  	1               	;
 362             	45.932      	1.87321704  	1               	;
 363             	42.651      	0.26639291  	1               	;
 364             	42.651      	0.30620817  	1               	;
 365             	49.213      	0.32744067  	1               	;
 366             	49.213      	0.26950084  	1               	;
 367             	42.651      	0.41431570  	1               	;
 368             	42.539      	0.25292235  	1               	;
 369             	42.526      	0.50301408  	1               	;
 370             	45.932      	0.24640826  	1               	;
 371             	49.213      	0.15717152  	1               	;
 372             	45.932      	0.26028929  	1               	;
 373             	47.546      	0.26941016  	1               	;
 374             	48.678      	0.12135951  	1               	;
 375             	49.245      	0.64632053  	1               	;
 376             	51.998      	0.51316325  	1               	;
 377             	52.493      	0.45708943  	1               	;
 378             	52.493      	0.68868408  	1               	;
 379             	49.213      	0.52035474  	1               	;
 380             	52.493      	0.28559696  	1               	;
 381             	52.493      	0.06881463  	1               	;
 382             	52.493      	0.51552514  	1               	;
 383             	52.503      	0.44088140  	1               	;
 384             	52.493      	0.27260738  	1               	;
 385             	52.493      	0.34608761  	1               	;
 386             	52.493      	0.19912715  	1               	;
 387             	54.616      	0.08990822  	1               	;
 388             	49.213      	0.11410449  	1               	;
 389             	49.213      	0.47048034  	1               	;
 390             	52.493      	0.46711436  	1               	;
 391             	49.213      	0.42060594  	1               	;
 392             	49.213      	0.21252579  	1               	;
 393             	49.213      	0.48602462  	1               	;
 394             	52.493      	0.56571752  	1               	;
 395             	55.774      	0.39104173  	1               	;
 396             	55.774      	1.04671420  	1               	;
 397             	53.625      	0.64223137  	1               	;
 398             	52.671      	0.39808871  	1               	;
 399             	53.793      	0.23045990  	1               	;
 400             	45.932      	0.05991129  	1               	;
 401             	45.932      	0.14485456  	1               	;
 402             	45.932      	0.41390256  	1               	;
 403             	45.932      	0.39562771  	1               	;
 404             	45.932      	0.13876294  	1               	;
 405             	45.932      	0.16922103  	1               	;
 406             	45.932      	0.10830485  	1               	;
 407             	49.213      	0.07792233  	1               	;
 408             	45.932      	0.32751494  	1               	;
 409             	45.932      	0.51355520  	1               	;
 410             	45.932      	0.57710755  	1               	;
 411             	45.932      	0.31865061  	1               	;
 412             	45.932      	0.53593245  	1               	;
 413             	43.330      	0.42156647  	1               	;
 414             	45.932      	0.24148658  	1               	;
 415             	45.932      	0.28322006  	1               	;
 416             	44.111      	0.25196628  	1               	;
 417             	43.383      	0.23118803  	1               	;
 418             	42.818      	0.17345998  	1               	;
 419             	45.932      	0.18811764  	1               	;
 420             	45.932      	0.31776835  	1               	;
 421             	45.932      	0.05842915  	1               	;
 422             	43.304      	0.22639828  	1               	;
 423             	42.943      	0.35420471  	1               	;
 424             	45.932      	0.09405882  	1               	;
 425             	44.892      	0.00000000  	1               	;
 426             	45.932      	0.17528746  	1               	;
 427             	43.645      	0.18901250  	1               	;
 428             	43.048      	0.09859185  	1               	;
 429             	45.932      	0.40216675  	1               	;
 430             	43.356      	0.00000000  	1               	;
 431             	43.796      	0.02677793  	1               	;
 432             	42.651      	0.05355586  	1               	;
 433             	44.583      	0.04382187  	1               	;
 434             	42.651      	0.02191093  	1               	;
 435             	42.651      	0.00000000  	1               	;
 436             	42.651      	0.02677793  	1               	;
 437             	42.651      	0.10957356  	1               	;
 438             	42.651      	0.34691996  	1               	;
 440             	42.651      	0.29650552  	1               	;
 441             	42.651      	0.08457270  	1               	;
 442             	42.487      	0.23734640  	1               	;
 443             	42.487      	0.04564935  	1               	;
 444             	42.500      	0.09129870  	1               	;
 445             	42.651      	0.03744431  	1               	;
 447             	45.531      	0.36887497  	1               	;
 448             	43.068      	0.18443748  	1               	;
 449             	42.651      	0.00000000  	1               	;
 450             	42.651      	0.08764373  	1               	;
 451             	42.651      	0.52845508  	1               	;
 452             	42.651      	0.44750373  	1               	;
 453             	41.795      	0.27191739  	1               	;
 454             	41.778      	0.23652095  	1               	;
 455             	42.651      	0.39454301  	1               	;
 456             	41.709      	0.63151966  	1               	;
 457             	42.651      	0.38440342  	1               	;
 458             	42.651      	0.19226225  	1               	;
 459             	41.588      	0.30462721  	1               	;
 460             	39.370      	0.65650245  	1               	;
 461             	42.651      	0.11904625  	1               	;
 462             	42.651      	0.03694980  	1               	;
 463             	42.651      	1.36831259  	1               	;
 464             	42.651      	0.18384092  	1               	;
 465             	42.651      	0.14923217  	1               	;
 466             	42.651      	1.29402004  	1               	;
 467             	43.425      	0.95865147  	1               	;
 468             	43.330      	0.17585277  	1               	;
 469             	42.651      	0.26321635  	1               	;
 470             	42.651      	0.41287363  	1               	;
 471             	42.651      	0.82694447  	1               	;
 472             	42.651      	0.07629265  	1               	;
 473             	42.651      	0.15258530  	1               	;
 474             	42.651      	0.72172668  	1               	;